FoamFile
{
    version     2.0;
    format      ascii;
    class       dictionary;
    object      fvSolution;
}

solvers
{
    p_rgh
    {
        solver          GAMG;
        tolerance       1e-6;
        relTol          0.1;
        smoother        GaussSeidel;
    }

    // ▼ ここを一般的な GaussSeidel に修正しました！ ▼
    "(U|T|h|k|epsilon|CO2)"
    {
        solver          smoothSolver;
        smoother        GaussSeidel;
        tolerance       1e-6;
        relTol          0.1;
    }
}

SIMPLE
{
    nNonOrthogonalCorrectors 0;
    pRefCell        0;
    pRefValue       0;

    residualControl
    {
        p_rgh           1e-4;
        U               1e-4;
        h               1e-4;
        k               1e-4;
        epsilon         1e-4;
        CO2             1e-4;
    }
}

relaxationFactors
{
    fields
    {
        p_rgh           0.3;
        rho             0.1;
    }
    equations
    {
        U               0.7;
        h               0.7;
        k               0.7;
        epsilon         0.7;
        CO2             0.7;
    }
}
