FoamFile
{
    version     2.0;
    format      ascii;
    class       volScalarField;
    object      k;
}

dimensions      [0 2 -2 0 0 0 0];

internalField   uniform 0.1;

boundaryField
{
    ac_inlet
    {
        type            fixedValue;
        value           uniform 0.1;
    }

    ventilation_outlet
    {
        type            zeroGradient;
    }

    {% if window_open %}
    window
    {
        type            fixedValue;
        value           uniform 0.1;
    }
    {% else %}
    window
    {
        type            zeroGradient;
    }
    {% endif %}

    walls
    {
        type            zeroGradient;
    }

    floor
    {
        type            zeroGradient;
    }

    ceiling
    {
        type            zeroGradient;
    }

    furniture
    {
        type            zeroGradient;
    }
}
